/*---------------------------------------------------------------------------*\
| =========                 |                                                 |
| \\      /  F ield         | OpenFOAM: The Open Source CFD Toolbox           |
|  \\    /   O peration     | Version:  1.5                                   |
|   \\  /    A nd           | Web:      http://www.openfoam.org               |
|    \\/     M anipulation  |                                                 |
\*---------------------------------------------------------------------------*/

FoamFile
{
    version         2.0;
    format          ascii;
    class           dictionary;
    object          blockMeshDict;
}

// * * * * * * * * * * * * * * * * * * * * * * * * * * * * * * * * * * * * * //


convertToMeters 0.00100;

vertices
(
// From Bottom To Top 
// InterconnectBottom
    (0 0 0.00000)
    (40.0 0 0.00000)
    (40.0 24.0 0.00000)
    (0.0 24.0 0.00000)
// InterconnectBottom_to_Air
    (0 0 3.50000)
    (40.0 0 3.50000)
    (40.0 24.0 3.50000)
    (0.0 24.0 3.50000)
// Air_to_cathode
    (0 0 5.00000)
    (40.0 0 5.00000)
    (40.0 24.0 5.00000)
    (0.0 24.0 5.00000)
// cathode_to_cfl
    (0 0 5.26700)
    (40.0 0 5.26700)
    (40.0 24.0 5.26700)
    (0.0 24.0 5.26700)
// cfl_to_Electrolyte (Cathode)
    (0 0 5.28500)
    (40.0 0 5.28500)
    (40.0 24.0 5.28500)
    (0.0 24.0 5.28500)
// Electrolyte_to_afl (AFL)
    (0 0 5.29300)
    (40.0 0 5.29300)
    (40.0 24.0 5.29300)
    (0.0 24.0 5.29300)
// afl_to_anode (Anode)
    (0 0 5.30000)
    (40.0 0 5.30000)
    (40.0 24.0 5.30000)
    (0.0 24.0 5.30000)
// anode_to_Fuel
    (0 0 6.30000)
    (40.0 0 6.30000)
    (40.0 24.0 6.30000)
    (0.0 24.0 6.30000)
// anode_to_InterconnectTop
    (0 0 7.80000)
    (40.0 0 7.80000)
    (40.0 24.0 7.80000)
    (0.0 24.0 7.80000)
// InterconnectTop
    (0 0 11.30000)
    (40.0 0 11.30000)
    (40.0 24.0 11.30000)
    (0.0 24.0 11.30000)
// InterconnectBottom
// InterconnectBottom_to_Air
    (0 0 14.80000)
    (40.0 0 14.80000)
    (40.0 24.0 14.80000)
    (0.0 24.0 14.80000)
// Air_to_cathode
    (0 0 16.30000)
    (40.0 0 16.30000)
    (40.0 24.0 16.30000)
    (0.0 24.0 16.30000)
// cathode_to_cfl
    (0 0 16.56700)
    (40.0 0 16.56700)
    (40.0 24.0 16.56700)
    (0.0 24.0 16.56700)
// cfl_to_Electrolyte (Cathode)
    (0 0 16.58500)
    (40.0 0 16.58500)
    (40.0 24.0 16.58500)
    (0.0 24.0 16.58500)
// Electrolyte_to_afl (AFL)
    (0 0 16.59300)
    (40.0 0 16.59300)
    (40.0 24.0 16.59300)
    (0.0 24.0 16.59300)
// afl_to_anode (Anode)
    (0 0 16.60000)
    (40.0 0 16.60000)
    (40.0 24.0 16.60000)
    (0.0 24.0 16.60000)
// anode_to_Fuel
    (0 0 17.60000)
    (40.0 0 17.60000)
    (40.0 24.0 17.60000)
    (0.0 24.0 17.60000)
// anode_to_InterconnectTop
    (0 0 19.10000)
    (40.0 0 19.10000)
    (40.0 24.0 19.10000)
    (0.0 24.0 19.10000)
// InterconnectTop
    (0 0 22.60000)
    (40.0 0 22.60000)
    (40.0 24.0 22.60000)
    (0.0 24.0 22.60000)
// InterconnectBottom
// InterconnectBottom_to_Air
    (0 0 26.10000)
    (40.0 0 26.10000)
    (40.0 24.0 26.10000)
    (0.0 24.0 26.10000)
// Air_to_cathode
    (0 0 27.60000)
    (40.0 0 27.60000)
    (40.0 24.0 27.60000)
    (0.0 24.0 27.60000)
// cathode_to_cfl
    (0 0 27.86700)
    (40.0 0 27.86700)
    (40.0 24.0 27.86700)
    (0.0 24.0 27.86700)
// cfl_to_Electrolyte (Cathode)
    (0 0 27.88500)
    (40.0 0 27.88500)
    (40.0 24.0 27.88500)
    (0.0 24.0 27.88500)
// Electrolyte_to_afl (AFL)
    (0 0 27.89300)
    (40.0 0 27.89300)
    (40.0 24.0 27.89300)
    (0.0 24.0 27.89300)
// afl_to_anode (Anode)
    (0 0 27.90000)
    (40.0 0 27.90000)
    (40.0 24.0 27.90000)
    (0.0 24.0 27.90000)
// anode_to_Fuel
    (0 0 28.90000)
    (40.0 0 28.90000)
    (40.0 24.0 28.90000)
    (0.0 24.0 28.90000)
// anode_to_InterconnectTop
    (0 0 30.40000)
    (40.0 0 30.40000)
    (40.0 24.0 30.40000)
    (0.0 24.0 30.40000)
// InterconnectTop
    (0 0 33.90000)
    (40.0 0 33.90000)
    (40.0 24.0 33.90000)
    (0.0 24.0 33.90000)
);

blocks          
(
    hex (   0    1    2    3    4    5    6    7) (40 48 5) simpleGrading (1 1 1)
    hex (   4    5    6    7    8    9   10   11) (40 48 5) simpleGrading (1 1 1)
    hex (   8    9   10   11   12   13   14   15) (40 48 5) simpleGrading (1 1 1)
    hex (  12   13   14   15   16   17   18   19) (40 48 3) simpleGrading (1 1 1)
    hex (  16   17   18   19   20   21   22   23) (40 48 1) simpleGrading (1 1 1)
    hex (  20   21   22   23   24   25   26   27) (40 48 3) simpleGrading (1 1 1)
    hex (  24   25   26   27   28   29   30   31) (40 48 5) simpleGrading (1 1 1)
    hex (  28   29   30   31   32   33   34   35) (40 48 5) simpleGrading (1 1 1)
    hex (  32   33   34   35   36   37   38   39) (40 48 5) simpleGrading (1 1 1)
    hex (  36   37   38   39   40   41   42   43) (40 48 5) simpleGrading (1 1 1)
    hex (  40   41   42   43   44   45   46   47) (40 48 5) simpleGrading (1 1 1)
    hex (  44   45   46   47   48   49   50   51) (40 48 5) simpleGrading (1 1 1)
    hex (  48   49   50   51   52   53   54   55) (40 48 3) simpleGrading (1 1 1)
    hex (  52   53   54   55   56   57   58   59) (40 48 1) simpleGrading (1 1 1)
    hex (  56   57   58   59   60   61   62   63) (40 48 3) simpleGrading (1 1 1)
    hex (  60   61   62   63   64   65   66   67) (40 48 5) simpleGrading (1 1 1)
    hex (  64   65   66   67   68   69   70   71) (40 48 5) simpleGrading (1 1 1)
    hex (  68   69   70   71   72   73   74   75) (40 48 5) simpleGrading (1 1 1)
    hex (  72   73   74   75   76   77   78   79) (40 48 5) simpleGrading (1 1 1)
    hex (  76   77   78   79   80   81   82   83) (40 48 5) simpleGrading (1 1 1)
    hex (  80   81   82   83   84   85   86   87) (40 48 5) simpleGrading (1 1 1)
    hex (  84   85   86   87   88   89   90   91) (40 48 3) simpleGrading (1 1 1)
    hex (  88   89   90   91   92   93   94   95) (40 48 1) simpleGrading (1 1 1)
    hex (  92   93   94   95   96   97   98   99) (40 48 3) simpleGrading (1 1 1)
    hex (  96   97   98   99  100  101  102  103) (40 48 5) simpleGrading (1 1 1)
    hex ( 100  101  102  103  104  105  106  107) (40 48 5) simpleGrading (1 1 1)
    hex ( 104  105  106  107  108  109  110  111) (40 48 5) simpleGrading (1 1 1)
);

edges
(
);

patches
(
// From Bottom To Top 
// InterconnectBottom
    patch sides
    (
        (   0    3    2    1)
        (   0    1    5    4)
        (   3    7    6    2)
        (   0    4    7    3)
        (   1    2    6    5)
        (  36   37   41   40)
        (  39   43   42   38)
        (  36   40   43   39)
        (  37   38   42   41)
        (  72   73   77   76)
        (  75   79   78   74)
        (  72   76   79   75)
        (  73   74   78   77)
        (   4    8   11    7)
        (  40   44   47   43)
        (  76   80   83   79)
        (   5    6   10    9)
        (  41   42   46   45)
        (  77   78   82   81)
        (   4    5    9    8)
        (   7   11   10    6)
        (  40   41   45   44)
        (  43   47   46   42)
        (  76   77   81   80)
        (  79   83   82   78)
        (   8    9   13   12)
        (  11   15   14   10)
        (   8   12   15   11)
        (   9   10   14   13)
        (  44   45   49   48)
        (  47   51   50   46)
        (  44   48   51   47)
        (  45   46   50   49)
        (  80   81   85   84)
        (  83   87   86   82)
        (  80   84   87   83)
        (  81   82   86   85)
        (  12   13   17   16)
        (  15   19   18   14)
        (  12   16   19   15)
        (  13   14   18   17)
        (  48   49   53   52)
        (  51   55   54   50)
        (  48   52   55   51)
        (  49   50   54   53)
        (  84   85   89   88)
        (  87   91   90   86)
        (  84   88   91   87)
        (  85   86   90   89)
        (  16   17   21   20)
        (  19   23   22   18)
        (  16   20   23   19)
        (  17   18   22   21)
        (  52   53   57   56)
        (  55   59   58   54)
        (  52   56   59   55)
        (  53   54   58   57)
        (  88   89   93   92)
        (  91   95   94   90)
        (  88   92   95   91)
        (  89   90   94   93)
        (  20   24   27   23)
        (  21   22   26   25)
        (  20   21   25   24)
        (  23   27   26   22)
        (  56   60   63   59)
        (  57   58   62   61)
        (  56   57   61   60)
        (  59   63   62   58)
        (  92   96   99   95)
        (  93   94   98   97)
        (  92   93   97   96)
        (  95   99   98   94)
        (  24   28   31   27)
        (  25   26   30   29)
        (  24   25   29   28)
        (  27   31   30   26)
        (  60   64   67   63)
        (  61   62   66   65)
        (  60   61   65   64)
        (  63   67   66   62)
        (  96  100  103   99)
        (  97   98  102  101)
        (  96   97  101  100)
        (  99  103  102   98)
        (  28   32   35   31)
        (  64   68   71   67)
        ( 100  104  107  103)
        (  29   30   34   33)
        (  65   66   70   69)
        ( 101  102  106  105)
        (  31   35   34   30)
        (  28   29   33   32)
        (  67   71   70   66)
        (  64   65   69   68)
        ( 103  107  106  102)
        ( 100  101  105  104)
        (  32   33   37   36)
        (  35   39   38   34)
        (  32   36   39   35)
        (  33   34   38   37)
        (  68   69   73   72)
        (  71   75   74   70)
        (  68   72   75   71)
        (  69   70   74   73)
        ( 104  105  109  108)
        ( 107  111  110  106)
        ( 104  108  111  107)
        ( 105  106  110  109)
        ( 108  109  110  111)
    )
);

mergePatchPairs
(
);


// ************************************************************************* //
