/*---------------------------------------------------------------------------*\
| =========                 |                                                 |
| \\      /  F ield         | OpenFOAM: The Open Source CFD Toolbox           |
|  \\    /   O peration     | Version:  1.3                                   |
|   \\  /    A nd           | Web:      http://www.openfoam.org               |
|    \\/     M anipulation  |                                                 |
\*---------------------------------------------------------------------------*/

FoamFile
{
    version         2.0;
    format          ascii;

    root            "";
    case            "";
    instance        "";
    local           "";

    class           dictionary;
    object          transportProperties;
}

// * * * * * * * * * * * * * * * * * * * * * * * * * * * * * * * * * * * * * //

rho             rho     [1 -3 0 0 0 0 0]     3300;
Cp              Cp      [0 2 -2 -1 0 0 0]    598.1;
k               k       [1 1 -3 -1 0 0 0]    2;

// height (thickness) of electrolyte [m]
hE              hE      [0 1 0 0 0 0 0]  1.143e-3;

// initial heat source value [W/m^3] 
//Hsrc            Hsrc    [1 -1 -3 0 0 0 0]    1.5e6;
Hsrc            Hsrc    [1 -1 -3 0 0 0 0]    0;

// ************************************************************************* //
