/*---------------------------------------------------------------------------*\
| =========                 |                                                 |
| \\      /  F ield         | OpenFOAM: The Open Source CFD Toolbox           |
|  \\    /   O peration     | Version:  1.5                                   |
|   \\  /    A nd           | Web:      http://www.openfoam.org               |
|    \\/     M anipulation  |                                                 |
\*---------------------------------------------------------------------------*/

FoamFile
{
    version         2.0;
    format          ascii;
    class           dictionary;
    object          transportProperties;
}

// * * * * * * * * * * * * * * * * * * * * * * * * * * * * * * * * * * * * * //
activationOverpotential true;

gammaAnode	gammaAnode   [0 -2 0 -1 0 1 0]    1.82527e+6;
a               a            [0 0 0 0 0 0 0]            -0.1;
b               b            [0 0 0 0 0 0 0]            0.33;
EAnode          EAnode       [1 2 -2 0 1 0 0]      105.04e+3;
alphaAnode      alphaAnode   [0 0 0 0 0 0 0]            0.59; 
gammaCathode    gammaCathode [0 -2 0 -1 0 1 0]    1.51556e+8;
m               m            [0 0 0 0 0 0 0]            0.22;
ECathode        ECathode     [1 2 -2 0 1 0 0]      1.3986e+5;
alphaCathode    alphaCathode [0 0 0 0 0 0 0]            0.65; 
// ************************************************************************* //
