/*---------------------------------------------------------------------------*\
| =========                 |                                                 |
| \\      /  F ield         | OpenFOAM: The Open Source CFD Toolbox           |
|  \\    /   O peration     | Version:  1.5                                   |
|   \\  /    A nd           | Web:      http://www.openfoam.org               |
|    \\/     M anipulation  |                                                 |
\*---------------------------------------------------------------------------*/
FoamFile
{
    version         2.0;
    format          ascii;
    class           dictionary;
    object          cellProperties;
}
// * * * * * * * * * * * * * * * * * * * * * * * * * * * * * * * * * * * * * //

// V=1.0  @ i=1000
// V=0.95 @ i=2000
// V=0.9  @ i=3000
// V=0.85 @ i=4000
// V=0.8  @ i=5000
// V=0.75 @ i=6000
// V=0.7  @ i=7000

// run mode
// true ==> galvanostatic
// false ==> potentiostatic
//
galvanostatic true;

// voltage
// galvanostatic ==> initial value
// potentiostaic ==> prescribed value
//
voltage         V [1 2 -3 0 0 -1 0] 0.85;         // volts

// mean current density
// galvanostatic ==> prescribed value
// potentiostaic ==> initial value
//
ibar0           ibar0 [0 -2 0 0 0 1 0] 4000.0;    // amperes/m^2

// voltage correction relaxation coefficient for galvanostatic run
//
Rhat            Rhat [1 4 -3 0 0 -2 0] 1.0e-5;    // ohm m^2


// initial Temperature for fuel and air T fields
Tinit		Tinit [0 0 0 1 0 0 0] 1000.0;	  // K


// special patch names
fuelInletPatch   fuelInlet;
fuelOutletPatch  fuelOutlet;
anodePatch       fuel_to_electrolyte;

airInletPatch    airInlet;
airOutletPatch   airOutlet;
cathodePatch     air_to_electrolyte;

electrolyteAnodePatch      electrolyte_to_fuel;
electrolyteCathodePatch    electrolyte_to_air;

// ************************************************************************* //
