/*--------------------------------*- C++ -*----------------------------------*\
| =========                 |                                                 |
| \\      /  F ield         | OpenFOAM: The Open Source CFD Toolbox           |
|  \\    /   O peration     | Version:  2.1.x                                 |
|   \\  /    A nd           | Web:      www.OpenFOAM.org                      |
|    \\/     M anipulation  |                                                 |
\*---------------------------------------------------------------------------*/
FoamFile
{
    version     2.0;
    format      ascii;
    class       volScalarField;
    location    "0";
    object      YH2O;
}
// * * * * * * * * * * * * * * * * * * * * * * * * * * * * * * * * * * * * * //

dimensions      [0 0 0 0 0 0 0];

internalField   uniform 0.218;

boundaryField
{
    fuelInlet
    {
        type            fixedValue;
        value           uniform 0.218;
    }
    fuelOutlet
    {
        type            zeroGradient;
    }
    fuel_to_electrolyte
    {
        type            fixedGradient;
        gradient        uniform 0;
    }
    fuel_to_interconnect
    {
        type            fixedGradient;
        gradient        uniform 0;
    }
}


// ************************************************************************* //
