/*---------------------------------------------------------------------------*\
| =========                 |                                                 |
| \\      /  F ield         | OpenFOAM: The Open Source CFD Toolbox           |
|  \\    /   O peration     | Version:  1.3                                   |
|   \\  /    A nd           | Web:      http://www.openfoam.org               |
|    \\/     M anipulation  |                                                 |
\*---------------------------------------------------------------------------*/

FoamFile
{
    version         2.0;
    format          ascii;

    root            "";
    case            "";
    instance        "";
    local           "";

    class           dictionary;
    object          blockMeshDict;
}

// * * * * * * * * * * * * * * * * * * * * * * * * * * * * * * * * * * * * * //


convertToMeters 0.001;

vertices        
(
    (0 0 0)
    (90 0 0)
    (90 82 0)
    (0 82 0)
// Interconnect
    (0 0 1.016)
    (90 0 1.016)
    (90 82 1.016)
    (0 82 1.016)
// Air
    (0 0 1.905)
    (90 0 1.905)
    (90 82 1.905)
    (0 82 1.905)
// Electrolyte
    (0 0 3.048)
    (90 0 3.048)
    (90 82 3.048)
    (0 82 3.048)
// Fuel
    (0 0 4.1148)
    (90 0 4.1148)
    (90 82 4.1148)
    (0 82 4.1148)
// Interconnect
    (0 0 5.1308)
    (90 0 5.1308)
    (90 82 5.1308)
    (0 82 5.1308)
);

blocks          
(
    hex (0 1 2 3 4 5 6 7) (20 20 5) simpleGrading (1 1 1)
    hex (4 5 6 7 8 9 10 11) (20 20 10) simpleGrading (1 1 1)
    hex (8 9 10 11 12 13 14 15) (20 20 5) simpleGrading (1 1 1)
    hex (12 13 14 15 16 17 18 19) (20 20 10) simpleGrading (1 1 1)
    hex (16 17 18 19 20 21 22 23) (20 20 5) simpleGrading (1 1 1)
);

edges           
(
);

patches         
(
    patch fuelInlet
    (
        (12 16 19 15)
    )

    patch fuelOutlet
    (
        (13 14 18 17)
    )

    cyclic fuelSides
    (
        (12 13 17 16)
        (15 19 18 14)
    )

    patch airInlet
    (
        (4 5 9 8)
    )

    patch airOutlet
    (
        (7 11 10 6)
    )

    cyclic airSides
    (
        (4 8 11 7)
        (5 6 10 9)
    )

    patch interconnectTop
    (
        (20 21 22 23)
    )

    patch interconnectBottom
    (
        (0 3 2 1)
    )

    patch interconnectSides
    (
        (0 1 5 4)
        (3 7 6 2)
        (0 4 7 3)
        (1 2 6 5)

        (16 17 21 20)
        (19 23 22 18)
        (16 20 23 19)
        (17 18 22 21)
    )

    patch electrolyteSides
    (
        (8 9 13 12)
        (11 15 14 10)
        (8 12 15 11)
        (9 10 14 13)
    )
);

mergePatchPairs 
(
);


// ************************************************************************* //
