/*--------------------------------*- C++ -*----------------------------------*\
| =========                 |                                                 |
| \\      /  F ield         | OpenFOAM Extend Project: Open source CFD        |
|  \\    /   O peration     | Version:  1.6-ext                               |
|   \\  /    A nd           | Web:      www.extend-project.de                 |
|    \\/     M anipulation  |                                                 |
\*---------------------------------------------------------------------------*/
FoamFile
{
    version     2.0;
    format      ascii;
    class       volScalarField;
    location    "";
    object      rho;
}
// * * * * * * * * * * * * * * * * * * * * * * * * * * * * * * * * * * * * * //

dimensions      [1 -3 0 0 0 0 0];

internalField   uniform 0.3516;

boundaryField
{
    interconnect
    {
        type         zeroGradient;
    }
    interconnectSides
    {
        type         zeroGradient;
    }
    airInlet
    {
        type         fixedValue;
        value        uniform 0.3516;
    }
    airOutlet
    {
        type         zeroGradient;
    }
    airSides
    {
        type         zeroGradient;
    }
    cathodeSides
    {
        type         zeroGradient;
    }
    cflSides
    {
        type         zeroGradient;
    }
    electrolyteSides
    {
        type         zeroGradient;
    }
    aflSides
    {
        type         zeroGradient;
    }
    anodeSides
    {
        type         zeroGradient;
    }
    fuelInlet
    {
        type         fixedValue;
        value        uniform 0.0305;
    }
    fuelOutlet
    {
        type         zeroGradient;
    }
    fuelSides
    {
        type         zeroGradient;
    }
    interconnectSides
    {
        type         zeroGradient;
    }
    interconnect
    {
        type         zeroGradient;
    }
}


// ************************************************************************* //
