/*---------------------------------------------------------------------------*\
| =========                 |                                                 |
| \\      /  F ield         | OpenFOAM: The Open Source CFD Toolbox           |
|  \\    /   O peration     | Version:  1.3                                   |
|   \\  /    A nd           | Web:      http://www.openfoam.org               |
|    \\/     M anipulation  |                                                 |
\*---------------------------------------------------------------------------*/

FoamFile
{
    version         2.0;
    format          ascii;

    root            "";
    case            "";
    instance        "";
    local           "";

    class           volVectorField;
    object          U;
}

// * * * * * * * * * * * * * * * * * * * * * * * * * * * * * * * * * * * * * //


dimensions      [0 1 -1 0 0 0 0];

internalField   uniform (0 1.839 0);

boundaryField
{
    airInlet
    {
        type            fixedValue;
        value           uniform (0 1.839 0);
    }

    airOutlet
    {
        type            zeroGradient;
    }

    airSides
    {
        type            fixedValue;
        value           uniform (0 0 0);
    }

    lowerInterconnect
    {
        type            fixedValue;
        value           uniform (0 0 0);
    }

    cathode
    {
        type            fixedValue;
        value           uniform (0 0 0);
    }
}


// ************************************************************************* //
