/*--------------------------------*- C++ -*----------------------------------*\
| =========                 |                                                 |
| \\      /  F ield         | OpenFOAM Extend Project: Open Source CFD        |
|  \\    /   O peration     | Version:  1.6-ext                               |
|   \\  /    A nd           | Web:      www.extend-project.de                 |
|    \\/     M anipulation  |                                                 |
\*---------------------------------------------------------------------------*/
FoamFile
{
    version     2.0;
    format      binary;
    class       dictionary;
    location    "constant";
    object      sofcSpeciesProperties;
}
// * * * * * * * * * * * * * * * * * * * * * * * * * * * * * * * * * * * * * //

speciesList
(
    O2
    N2
);


O2      O2  31.9988  4  -1  0  205.152;
N2      N2  28.0134  0   0  0  191.609;
//      |    |       |   |  |  |
//      |    |       |   |  |  standardEntropy [J/(mol K)
//      |    |       |   |  enthalpy of formation [J/mol]
//      |    |       |   produced=1|inert=0|consumed=-1
//      |    |       molecularChargeForFaradaysLaw 
//      |   molecularWeight [kg/kmol]
//      name


inertSofcSpecie  N2;   //inert for purposes of mass fraction calculation
                       // not necessarily chemically inert


// toddYoung polynomials
// from Todd&Young, J. Power Sources 110 (2002) pp 186-200
//
// molar Cp coefficients (molar heat capacity) [J/(mol K]
CpCoeffs
{
    O2  34.850  -57.975  203.68  -300.37  231.72  -91.821  14.776;
    N2  29.027  4.8987  -38.040  105.17  -113.56  55.554  -10.350;
}

// mu coeficcients (dynamic viscosity) [1e-7 kg/(m s)]
muCoeffs
{
    O2  -1.6918  889.75  -892.79  905.98  -598.36  221.64  -34.754;
    N2   1.2719  771.45  -809.20  832.47  -553.93  206.15  -32.430;
}

// k coefficients (thermal conductivity) [W/(m K)]
kCoeffs
{
    O2  -0.1857  11.118  -7.3734  6.7130  -4.1797  1.4910  -0.2278;
    N2  -0.3216  14.810  -25.473  38.837  -32.133  13.493  -2.2741;
}

activationParameters
{
    type  butlerVolmer;
    gamma   1.51556e+8;
    E     E     [1 2 -2 0 1 0 0]    1.3986e+5;
    alpha   0.65;
    relax   1;

    entries
    {
        O2 
        {
             stoichiometricCoeff 0.22;
             active true;
        }              
        N2 
        {
            stoichiometricCoeff 0.0;
            active false;
        }              
    }
}

// ************************************************************************* //
