/*---------------------------------------------------------------------------*\
| =========                 |                                                 |
| \\      /  F ield         | OpenFOAM: The Open Source CFD Toolbox           |
|  \\    /   O peration     | Version:  1.5                                   |
|   \\  /    A nd           | Web:      http://www.openfoam.org               |
|    \\/     M anipulation  |                                                 |
\*---------------------------------------------------------------------------*/

FoamFile
{
    version         2.0;
    format          ascii;

    root            "";
    case            "";
    instance        "";
    local           "";
    
    class           volScalarField;
    object          T;
}

// * * * * * * * * * * * * * * * * * * * * * * * * * * * * * * * * * * * * * //


dimensions      [0 0 0 1 0 0 0];

internalField   uniform 1000;

boundaryField
{

    airInlet
    {
        type            fixedValue;
        value           $internalField;
    }

    airOutlet
    {
        type            zeroGradient;
    }

    airSides
    {
        type            zeroGradient;
    }

    cathodeSides
    {
        type            zeroGradient;
    }

    cflSides
    {
        type            zeroGradient;
    }

    air_to_interconnect0
    {
        type            zeroGradient;
    }

    air_to_electrolyte //cathode
    {
        type            zeroGradient;
    }
      
}


// ************************************************************************* //
