/*---------------------------------------------------------------------------*\
| =========                 |                                                 |
| \\      /  F ield         | OpenFOAM: The Open Source CFD Toolbox           |
|  \\    /   O peration     | Version:  1.3                                   |
|   \\  /    A nd           | Web:      http://www.openfoam.org               |
|    \\/     M anipulation  |                                                 |
\*---------------------------------------------------------------------------*/

FoamFile
{
    version         2.0;
    format          ascii;

    root            "";
    case            "";
    instance        "";
    local           "";

    class           volScalarField;
    object          T;
}

// * * * * * * * * * * * * * * * * * * * * * * * * * * * * * * * * * * * * * //


dimensions      [0 0 0 1 0 0 0];        // Temperature

internalField   uniform 943;

boundaryField
{
    electrolyteSides
    {
        type            zeroGradient;
    }

    cathode
    {
        type            regionCoupling;
        value           uniform 0;
        remoteField     T;
    }

    anode
    {
        type            regionCoupling;
        value           uniform 0;
        remoteField     T;
    }
}


// ************************************************************************* //
