/*--------------------------------*- C++ -*----------------------------------*\
| =========                 |                                                 |
| \\      /  F ield         | OpenFOAM Extend Project: Open Source CFD        |
|  \\    /   O peration     | Version:  1.6-ext                               |
|   \\  /    A nd           | Web:      www.extend-project.de                 |
|    \\/     M anipulation  |                                                 |
\*---------------------------------------------------------------------------*/
FoamFile
{
    version     2.0;
    format      binary;
    class       dictionary;
    location    "constant";
    object      sofcSpeciesProperties;
}
// * * * * * * * * * * * * * * * * * * * * * * * * * * * * * * * * * * * * * //

speciesList
(
    H2
    H2O
);


// name
// molecular weight
// molecular charge (unsigned)
// reaction flag: -1=consumed(reactant), 0=inert, 1=produced(product)
// enthalpy of formation (0 for elements)
// stoichiometric coefficient in electrochemical reaction

H2      H2    2.01594  2  -1  0            130.680;
H2O     H2O  18.01534  2   1  -241.8349e3  188.835;
//      |     |        |   |  |            |
//      |     |        |   |  |            standardEntropy [J/(mol K)
//      |     |        |   |  enthalpyOfFormation [J/mol]
//      |     |        |   produced=1|inert=0|consumed=-1
//      |     |        molecularChargeForFaradaysLaw
//      |    molecularWeight [kg/kmol]
//      name


inertSofcSpecie H2O;   //inert for purposes of mass fraction calculation
                       // not necessarily chemically inert


// toddYoung polynomials
// from Todd&Young, J. Power Sources 110 (2002) pp 186-200
//
// molar Cp coefficients (molar heat capacity) [J/(mol K)]
CpCoeffs
{
    H2  21.157  56.036  -150.55  199.29  -136.15  46.903  -6.4725;
    H2O 37.373  -41.205  146.01  -217.08  181.54  -79.409  14.015;
}

// mu coefficients (dynamic viscosity) [1e-7 kg/(m s)]
muCoeffs
{
    H2   15.553  299.78  -244.34  249.41  -167.51  62.966  -9.9892;
    H2O  -6.7541  244.93  419.50  -522.38  348.12  -126.96  19.591;
}

// k coefficients (thermal conductivity) [W/(m K)]
kCoeffs
{
    H2   1.5040  62.892  -47.190  47.763  -31.939  11.972  -1.8954;
    H2O  2.0103  -7.9139  35.922  -41.390  35.993  -18.974  4.1531;
}

activationParameters
{
    gamma gamma [0 -2 0 -1 0 1 0]   1.82527e+6;
    E     E     [1 2 -2 0 1 0 0]    105.04e+3;
    alpha alpha [0 0 0 0 0 0 0]     0.59;
    relax relax [0 0 0 0 0 0 0]     1;

    entries
    {
        H2O
        {
            stoichiometricCoeff stoichiometricCoeff [0 0 0 0 0 0 0] 0.33;
            active true;
        }

        H2
        {
            stoichiometricCoeff stoichiometricCoeff [0 0 0 0 0 0 0] -0.1;
            active true;
        }
    }
}

// ************************************************************************* //

