/*---------------------------------------------------------------------------*\
| =========                 |                                                 |
| \\      /  F ield         | OpenFOAM: The Open Source CFD Toolbox           |
|  \\    /   O peration     | Version:  1.5                                   |
|   \\  /    A nd           | Web:      http://www.openfoam.org               |
|    \\/     M anipulation  |                                                 |
\*---------------------------------------------------------------------------*/

FoamFile
{
    version         2.0;
    format          ascii;
    class           dictionary;
    object          porousZones;
}

// * * * * * * * * * * * * * * * * * * * * * * * * * * * * * * * * * * * * * //

/*( Deleted SBB*/
    cathode
    {
/* Deleted SBB
       coordinateSystem
        {
            e1        (1 0 0);
            e2        (0 0 1); 
        }

        porosity    0.5; 

End deleted SBB*/

        Cp          Cp [0 2 -2 -1 0 0 0]    750;
        k           k  [1 1 -3 -1 0 0 0]    3.0;
/* Deleted SBB
        Darcy
        {
            d         d [0 -2 0 0 0 0 0] (1e12 1e12 1e12);
            f         f [0 -1 0 0 0 0 0] (0 0 0);
        }
End deleted SBB */
/* Added SBB */
    type            DarcyForchheimer;	// porosity Model: fixCoeff, powerLaw, DarcyForchheimer
    active          yes;		// status
    cellZone        cathode;		// name of porous zone
    porosity        0.5;		// porosity
    DarcyForchheimerCoeffs		// coefficents for DarcyForchheimer; with the name of type + Coeffs
    {
        d   (1e12 1e12 1e12);
        f   (0 0 0);
        coordinateSystem
        {
            type    cartesian;
            origin  (0 0 0);
            coordinateRotation
            {
                type    axesRotation;
                e1      (1 0 0);
                e2      (0 0 1);
            }
        }
    }
/* End added SBB */
        diffusivity
        {
            type        fixedDiffusivity;
            diff0       diff0 [0 2 -1 0 0 0 0]  2.9864e-5;
            // ------------------------------------------ //
            //type        porousFSG;
            //Tname       T;
            //pName       p;
            //speciesA    O2;     // diffusing species
            //speciesB    N2;     // background species
            //porosity    0.5;
            //tortuosity  3.0;
            //dPore       dPore [0 1 0 0 0 0 0] 8e-06;   // pore size
            //doBinary    false;
        }
    }

    cfl
    {
/* Deleted SBB
        coordinateSystem
        {
            e1        (1 0 0);
            e2        (0 0 1); 
        }

        porosity    0.25;
End deleted SBB */

        Cp          Cp [0 2 -2 -1 0 0 0]    750;
        k           k  [1 1 -3 -1 0 0 0]    3.0;

/* Deleted SBB

        Darcy
        {
            d         d [0 -2 0 0 0 0 0] (1e12 1e12 1e12);
            f         f [0 -1 0 0 0 0 0] (0 0 0);
        }
end deleted SBB*/
/* Added SBB */
    type            DarcyForchheimer;
    active          yes;
    cellZone        cfl;
    porosity        0.25;
    DarcyForchheimerCoeffs
    {
        d   (1e12 1e12 1e12);
        f   (0 0 0);
        coordinateSystem
        {
            type    cartesian;
            origin  (0 0 0);
            coordinateRotation
            {
                type    axesRotation;
                e1      (1 0 0);    //(0.70710678 0.70710678 0);
                e2      (0 0 1);
            }
        }
    }
/* End added SBB */

        diffusivity
        {
            type        fixedDiffusivity;
            diff0       diff0 [0 2 -1 0 0 0 0]  1.0540e-5;
            // ------------------------------------------ //
            //type        porousFSG;
            //Tname       T;
            //pName       p;
            //speciesA    O2;     // diffusing species
            //speciesB    N2;     // background species
            //porosity    0.25;
            //tortuosity  3.0;
            //dPore       dPore [0 1 0 0 0 0 0] 1.111111e-07;   // cfl pore size
            //doBinary    false;
        }
    }
// ************************************************************************* //
