/*--------------------------------*- C++ -*----------------------------------*\
| =========                 |                                                 |
| \\      /  F ield         | OpenFOAM: The Open Source CFD Toolbox           |
|  \\    /   O peration     | Version:  2.1.x                                 |
|   \\  /    A nd           | Web:      www.OpenFOAM.org                      |
|    \\/     M anipulation  |                                                 |
\*---------------------------------------------------------------------------*/
FoamFile
{
    version     2.0;
    format      ascii;
    class       volVectorField;
    location    "0";
    object      U-e-e;
}
// * * * * * * * * * * * * * * * * * * * * * * * * * * * * * * * * * * * * * //

dimensions      [0 1 -1 0 0 0 0];

internalField   uniform (0 0 0);

boundaryField
{
    airInlet
    {
        type            fixedValue;
        value           uniform (0 0 1);
    }
    airOutlet
    {
        type            zeroGradient;
    }
    air_to_electrolyte
    {
        type            fixedValue;
        value           uniform (0 0 0);
    }
    air_to_interconnect
    {
        type            fixedValue;
        value           uniform (0 0 0);
    }
}


// ************************************************************************* //
