/*--------------------------------*- C++ -*----------------------------------*\
| =========                 |                                                 |
| \\      /  F ield         | OpenFOAM: The Open Source CFD Toolbox           |
|  \\    /   O peration     | Version:  2.1.x                                 |
|   \\  /    A nd           | Web:      www.OpenFOAM.org                      |
|    \\/     M anipulation  |                                                 |
\*---------------------------------------------------------------------------*/
FoamFile
{
    version     2.0;
    format      ascii;
    class       volScalarField;
    location    "0";
    object      YO2;
}
// * * * * * * * * * * * * * * * * * * * * * * * * * * * * * * * * * * * * * //

dimensions      [0 0 0 0 0 0 0];

internalField   uniform 0.233;

boundaryField
{
    airInlet
    {
        type            fixedValue;
        value           uniform 0.233;
    }
    airOutlet
    {
        type            zeroGradient;
    }
    air_to_electrolyte
    {
        type            fixedGradient;
        gradient        uniform 0;
    }
    air_to_interconnect
    {
        type            fixedGradient;
        gradient        uniform 0;
    }
}


// ************************************************************************* //
